CM  Simple loop antenna to locate interference using car's 2M radio.
CE
GA 1 4 0.4 -88 268 0.006
GW 2 1 -0.0139597986810004 0.00 -0.399756330807638 0.0139597986810007 0.00 -0.399756330807638 0.006
GE
EX 0 2 1 0 1.00 0.00 0.00 0.00 0.00 0.00
FR 0 10 0 0 118 5.77777777777778 0.00 0.00 0.00 0.00
RP 0 31 31 1000 0.00 0.00 11.6129032258065 11.6129032258065
EN
