CM  Simple loop antenna to locate interference using car's 2M radio.
CE
GA 2 31 0.333 -270 90 0.001
GM 0 0 0.00 0.00 0.00 0.00 0.00 0.666
GW 1 1 -0.02 0.00 0.00 0.02 0.00 0.00 0.001
GE
EX 0 1 1 0 1.00 0.00 0.00 0.00 0.00 0.00
TL 1 1 2 16 75.00 0.511352014726938
FR 0 10 0 0 118 5.77777777777778 0.00 0.00 0.00 0.00
RP 0 31 31 1000 0.00 0.00 11.6129032258065 11.6129032258065
EN
