CM --- NEC2 Input File created or edited by xnec2c 3.5 ---
CM Arc (GA) should have an odd number of segments to put the middle segment
CM flat on the bottom of the loop.
CM Transmission line (TL) connects to arc on the middle segment which is
CM (n_seg + 1) / 2.
CE --- End Comments ---
GW     9     1   1.00000E-01  0.00000E+00  5.00000E-01 -1.00000E-01  0.00000E+00  5.00000E-01  6.00000E-03
GA     1     5   1.00000E+00  9.00000E+01 -2.70000E+02  1.50000E-03  2.30537E+01  0.00000E+00  0.00000E+00
GM     0     0   0.00000E+00  0.00000E+00  0.00000E+00  0.00000E+00  0.00000E+00  2.00000E+00  1.00000E+00
GE     1     0   0.00000E+00  0.00000E+00  0.00000E+00  0.00000E+00  0.00000E+00  0.00000E+00  0.00000E+00
EX     0     9     1      0  1.00000E+00  0.00000E+00  0.00000E+00  0.00000E+00  0.00000E+00  0.00000E+00
TL     1     3     9      1  5.00000E+01  0.00000E+00  0.00000E+00  0.00000E+00  0.00000E+00  0.00000E+00
FR     0    21     0      0  4.50000E+01  5.00000E-01  5.50000E+01  0.00000E+00  0.00000E+00  0.00000E+00
RP     0    19    37   1000  0.00000E+00  0.00000E+00  5.00000E+00  1.00000E+01  0.00000E+00  0.00000E+00
EN     0     0     0      0  0.00000E+00  0.00000E+00  0.00000E+00  0.00000E+00  0.00000E+00  0.00000E+00
